Writing a file...
New line...
John
Henry
Kevin